12
Properties=species:S:1:pos:R:3:tags:I:1 pbc="F F F"
C       -0.70400000      -1.21940000      -0.00000000        0
C        0.70400000      -1.21940000      -0.00000000        0
C       -1.40810000      -0.00000000      -0.00000000        0
C        1.40810000       0.00000000       0.00000000        0
C       -0.70400000       1.21940000       0.00000000        0
C        0.70400000       1.21940000      -0.00000000        0
H       -1.21520000      -2.10480000      -0.00000000        0
H        1.21520000      -2.10480000       0.00000000        0
H       -2.43040000      -0.00000000       0.00000000        0
H        2.43040000       0.00000000       0.00000000        0
H       -1.21520000       2.10480000      -0.00000000        0
H        1.21520000       2.10480000       0.00000000        0
